LAMMPS (29 Oct 2020)
###################### polyelectrolyte complexation ######################
clear

#Initialization
#------------------------------------
units				lj
dimension			3
atom_style			full
boundary			p p p

#Atom Definition
#-------------------------------------
read_data			data.complexation
Reading data file ...
  orthogonal box = (-80.000000 -80.000000 -80.000000) to (80.000000 80.000000 80.000000)
  reading atoms ...
  80 atoms
  scanning bonds ...
  reading bonds ...
  79 bonds
Finding 1-2 1-3 1-4 neighbors ...
     2 = max # of 1-2 neighbors
     2 = max # of 1-3 neighbors
     4 = max # of 1-4 neighbors
     6 = max # of special neighbors

#Force definition
#----------------------------------------------
#Bond definition
bond_style			harmonic
bond_coeff			1 5000 1
#Pair definition
special_bonds	lj 0 1 1
Finding 1-2 1-3 1-4 neighbors ...
     2 = max # of 1-2 neighbors
     2 = max # of 1-3 neighbors
     4 = max # of 1-4 neighbors
     6 = max # of special neighbors
pair_style		 lj/cut 1.12
pair_modify 		 shift yes
pair_coeff	1 1 1 1 1.12

#Timestep etc
#--------------------------------------------
timestep		1e-05
run_style		verlet
velocity		all	create	1	14

#Fix
#---------------------------------------
group polymers type 1
80 atoms in group polymers
fix 1 all nve
fix 2 all langevin 1	1	10	14
fix 3 polymers recenter INIT INIT INIT units box

#Dump
#------------------------------------------------
compute  1 all gyration
variable  myRg2 equal c_1
variable  i equal step

thermo_style		 custom step temp press pe evdwl ecoul ebond ke etotal enthalpy
thermo 	5000
dump	3 all custom 5000 dump.lammpstrj id mol type xu yu zu
run		20000000
  update every 1 steps, delay 10 steps, check yes
Step Temp Press PotEng E_vdwl E_coul E_bond KinEng TotEng Enthalpy
0            1 1.9287109e-05            0            0            0            0      1.48125      1.48125      2.46875
Averages over the last 2001 of 4001 rows, steps 10000000 to 20000000:
Temp Press PotEng E_vdwl E_coul E_bond KinEng TotEng Enthalpy
1.01766 4.89019e-07 0.517772 0.0221288 0 0.495643 1.50741 2.02518 2.05022
Loop time of 189.428 on 1 procs for 20000000 steps with 80 atoms

write_restart restart.equil
System init for write_restart ...
#--------------End of Input file ------------------
