LAMMPS (29 Oct 2020)
###################### polyelectrolyte complexation ######################
clear

#Initialization
#------------------------------------
units				lj
dimension			3
atom_style			full
boundary			p p p

#Atom Definition
#-------------------------------------
read_data			data.complexation
Reading data file ...
  orthogonal box = (-120.00000 -120.00000 -120.00000) to (120.00000 120.00000 120.00000)
  reading atoms ...
  200 atoms
  scanning bonds ...
  reading bonds ...
  199 bonds
Finding 1-2 1-3 1-4 neighbors ...
     2 = max # of 1-2 neighbors
     2 = max # of 1-3 neighbors
     4 = max # of 1-4 neighbors
     6 = max # of special neighbors

#Force definition
#----------------------------------------------
#Bond definition
bond_style			harmonic
bond_coeff			1 5000 1
#Pair definition
special_bonds	lj 0 1 1
Finding 1-2 1-3 1-4 neighbors ...
     2 = max # of 1-2 neighbors
     2 = max # of 1-3 neighbors
     4 = max # of 1-4 neighbors
     6 = max # of special neighbors
pair_style		 lj/cut 1.12
pair_modify 		 shift yes
pair_coeff	1 1 1 1 1.12

#Timestep etc
#--------------------------------------------
timestep		1e-05
run_style		verlet
velocity		all	create	1	12

#Fix
#---------------------------------------
group polymers type 1
200 atoms in group polymers
fix 1 all nve
fix 2 all langevin 1	1	10	12
fix 3 polymers recenter INIT INIT INIT units box

#Dump
#------------------------------------------------
compute  1 all gyration
variable  myRg2 equal c_1
variable  i equal step

thermo_style		 custom step temp press pe evdwl ecoul ebond ke etotal enthalpy
thermo 	5000
dump	3 all custom 5000 dump.lammpstrj id mol type xu yu zu
run		20000000
  update every 1 steps, delay 10 steps, check yes
Step Temp Press PotEng E_vdwl E_coul E_bond KinEng TotEng Enthalpy
0            1 1.4395255e-05            0            0            0            0       1.4925       1.4925       2.4875
Averages over the last 2001 of 4001 rows, steps 10000000 to 20000000:
Temp Press PotEng E_vdwl E_coul E_bond KinEng TotEng Enthalpy
1.01127 -2.53897e-07 0.515424 0.0202376 0 0.495186 1.50932 2.02475 2.0072
Loop time of 541.604 on 1 procs for 20000000 steps with 200 atoms

write_restart restart.equil
System init for write_restart ...
#--------------End of Input file ------------------
