LAMMPS (29 Oct 2020)
###################### polyelectrolyte complexation ######################
clear

#Initialization
#------------------------------------
units				lj
dimension			3
atom_style			full
boundary			p p p

#Atom Definition
#-------------------------------------
read_restart			restart.equil
Reading restart file ...
  restart file = 29 Oct 2020, LAMMPS = 29 Oct 2020
  restoring atom style full from restart
  orthogonal box = (-80.000000 -80.000000 -80.000000) to (80.000000 80.000000 80.000000)
  restoring pair style lj/cut from restart
  restoring bond style harmonic from restart
  60 atoms
  59 bonds
Finding 1-2 1-3 1-4 neighbors ...
     2 = max # of 1-2 neighbors
     2 = max # of 1-3 neighbors
     4 = max # of 1-4 neighbors
     6 = max # of special neighbors
  read_restart CPU = 0.003 seconds

#Force definition
#----------------------------------------------
#Bond definition
bond_style			harmonic
bond_coeff			1 5000 1
#Pair definition
special_bonds	lj 0 1 1
dielectric		80
pair_style		 lj/cut 1.12
pair_modify 		 shift yes
pair_coeff	1 1 1 1 1.12

#Timestep etc
#--------------------------------------------
timestep		0.001
run_style		verlet
velocity		all	create	1	3

#Fix
#---------------------------------------
group polymers type 1
60 atoms in group polymers
fix 1 all nve
fix 2 all langevin 1	1	1000	3

#Dump
#------------------------------------------------
compute  1 all gyration
variable  myRg2 equal c_1
variable  i equal step

thermo_style		 custom step temp press pe evdwl ecoul ebond ke etotal enthalpy
thermo 	5000
dump	3 all custom 5000 dump.lammpstrj id mol type xu yu zu
run		2000000
  update every 1 steps, delay 10 steps, check yes
Step Temp Press PotEng E_vdwl E_coul E_bond KinEng TotEng Enthalpy
2000000            1 -0.00012130765   0.43871753 0.0060657727            0   0.43265176        1.475    1.9137175   -6.3675516
Averages over the last 201 of 401 rows, steps 3000000 to 4000000:
Temp Press PotEng E_vdwl E_coul E_bond KinEng TotEng Enthalpy
0.920796 -1.54409e-06 0.442777 0.0182343 0 0.424543 1.35817 1.80095 1.69554
Loop time of 216.392 on 1 procs for 2000000 steps with 60 atoms

write_restart restart.rerun.1
System init for write_restart ...
#--------------End of Input file ------------------
